/*--------------------------------*- C++ -*----------------------------------*\
| =========                 |                                                 |
| \\      /  F ield         | OpenFOAM: The Open Source CFD Toolbox           |
|  \\    /   O peration     | Version:  plus                                  |
|   \\  /    A nd           | Web:      www.OpenFOAM.com                      |
|    \\/     M anipulation  |                                                 |
\*---------------------------------------------------------------------------*/
FoamFile
{
    version     2.0;
    format      ascii;
    class       volScalarField;
    location    "0";
    object      k;
}
// * * * * * * * * * * * * * * * * * * * * * * * * * * * * * * * * * * * * * //

dimensions      [0 2 -2 0 0 0 0];

internalField   uniform 0.375;

boundaryField
{
    Inlet
    {
        type            fixedValue;
        value           uniform 0.375;
    }
    Outlet
    {
        type            zeroGradient;
    }
    Walls
    {
        type            kqRWallFunction;
        value           uniform 0.375;
    }
    Front
    {
        type            empty;
    }
    Back
    {
        type            empty;
    }
}


// ************************************************************************* //
